Version 4
SHEET 1 880 680
WIRE -96 -272 -736 -272
WIRE -480 -208 -528 -208
WIRE -528 -192 -528 -208
WIRE -736 -160 -736 -272
WIRE -608 -160 -736 -160
WIRE -528 -112 -528 -128
WIRE -480 -96 -480 -208
WIRE -448 -96 -480 -96
WIRE -96 -96 -96 -272
WIRE -96 -96 -224 -96
WIRE 368 -96 -96 -96
WIRE -608 -48 -608 -80
WIRE -496 -48 -608 -48
WIRE -608 -32 -608 -48
WIRE -448 -32 -480 -32
WIRE 32 -32 -224 -32
WIRE 368 -32 368 -96
WIRE 368 -32 352 -32
WIRE 352 -16 352 -32
WIRE -496 32 -496 -48
WIRE -448 32 -496 32
WIRE -80 32 -224 32
WIRE -608 64 -608 48
WIRE -512 64 -608 64
WIRE -480 64 -480 -32
WIRE -480 64 -512 64
WIRE -736 96 -736 -160
WIRE -448 96 -736 96
WIRE -176 96 -224 96
WIRE 352 96 352 64
WIRE -736 112 -736 96
WIRE -608 128 -608 64
WIRE -176 144 -176 96
WIRE 352 192 352 160
WIRE -608 208 -608 192
WIRE -736 240 -736 192
WIRE 288 240 176 240
WIRE -512 256 -512 64
WIRE -80 256 -80 32
WIRE -80 256 -512 256
WIRE 32 256 32 -32
WIRE 80 256 32 256
WIRE 176 256 176 240
WIRE 176 256 160 256
FLAG 352 288 0
FLAG -736 240 0
FLAG -176 144 0
FLAG -608 208 0
FLAG -528 -112 0
SYMBOL res 336 -32 R0
SYMATTR InstName R1
SYMATTR Value 18
SYMBOL npn 288 192 R0
SYMATTR InstName Q1
SYMATTR Value BC817-16
SYMBOL res 176 240 R90
WINDOW 0 0 56 VBottom 2
WINDOW 3 32 56 VTop 2
SYMATTR InstName R3
SYMATTR Value 180
SYMBOL LED 336 96 R0
SYMATTR InstName D1
SYMBOL SBORKA\\TIMER\\555_ -336 0 R0
SYMATTR InstName U1
SYMBOL voltage -736 96 R0
WINDOW 123 0 0 Left 0
WINDOW 39 0 0 Left 0
SYMATTR InstName V1
SYMATTR Value 4
SYMBOL res -624 -48 R0
SYMATTR InstName R2
SYMATTR Value 18.4k
SYMBOL res -624 -176 R0
SYMATTR InstName R4
SYMATTR Value 1k
SYMBOL cap -624 128 R0
SYMATTR InstName C1
SYMATTR Value 1n
SYMBOL cap -544 -192 R0
SYMATTR InstName C2
SYMATTR Value 10n
TEXT -770 312 Left 2 !.tran 10m
